Circuit: * C:\users\erik\My Documents\Education\powerelectronics\AdvancedConverterControlTechqiues\week1\HbridgeDraft2.asc

WARNING: Node N003 is floating.

WARNING: Less than two connections to node N003.  This node is used by R3.
Per .tran options, skipping operating point for transient analysis.
Ignoring empty pin current: Ix(u1:1)
Ignoring empty pin current: Ix(u1:2)
Ignoring empty pin current: Ix(u1:3)
Ignoring empty pin current: Ix(u1:5)

Date: Mon Sep 07 08:54:09 2020
Total elapsed time: 11.495 seconds.

tnom = 27
temp = 27
method = modified trap
totiter = 1472723
traniter = 1472723
tranpoints = 442127
accept = 337591
rejected = 104536
matrix size = 34
fillins = 0
solver = Normal
Matrix Compiler1: 1.19 KB object code size  0.3/0.2/[0.1]
Matrix Compiler2: 2.23 KB object code size  0.3/0.4/[0.2]

