Circuit: * C:\users\erik\My Documents\Education\powerelectronics\AdvancedConverterControlTechniques\HBridgeDraf5.asc

Direct Newton iteration for .op point succeeded.

Date: Mon Sep 07 21:00:17 2020
Total elapsed time: 0.252 seconds.

tnom = 27
temp = 27
method = trap
totiter = 3
traniter = 0
tranpoints = 0
accept = 0
rejected = 0
matrix size = 5
fillins = 1
solver = Normal
Matrix Compiler1: 150 bytes object code size
Matrix Compiler2: 321 bytes object code size
