Circuit: * C:\users\erik\My Documents\Education\powerelectronics\AdvancedConverterControlTechniques\Chapter2Problems\Draft1.asc

Direct Newton iteration failed to find .op point.  (Use ".option noopiter" to skip.)
Starting Gmin stepping
Gmin = 10
Gmin = 1.07374
Gmin = 0.115292
Gmin = 0.0123794
Gmin = 0.00132923
Gmin = 0.000142725
Gmin = 1.5325e-005
Gmin = 1.6455e-006
Gmin = 1.76685e-007
Gmin = 1.89714e-008
Gmin = 2.03704e-009
Gmin = 2.18725e-010
Gmin = 2.34854e-011
Gmin = 2.52173e-012
Gmin = 2.70769e-013
Gmin = 0
Gmin stepping succeeded in finding the operating point.

Ignoring empty pin current: Ix(u1:1)
Ignoring empty pin current: Ix(u1:2)
Ignoring empty pin current: Ix(u1:3)
Ignoring empty pin current: Ix(u1:5)
Ignoring empty pin current: Ix(u1:1)
Ignoring empty pin current: Ix(u1:2)
Ignoring empty pin current: Ix(u1:3)
Ignoring empty pin current: Ix(u1:5)
Heightened Def Con from 2.77896e-005 to 2.77912e-005
Heightened Def Con from 4.97896e-005 to 4.97913e-005
Heightened Def Con from 5.17897e-005 to 5.17913e-005
Heightened Def Con from 5.40005e-005 to 5.40006e-005
Heightened Def Con from 5.57898e-005 to 5.57914e-005
Heightened Def Con from 5.77896e-005 to 5.77912e-005
Heightened Def Con from 5.97901e-005 to 5.97918e-005
Heightened Def Con from 6.57902e-005 to 6.57918e-005
Heightened Def Con from 6.97906e-005 to 6.97922e-005
Heightened Def Con from 7.37896e-005 to 7.37913e-005
Heightened Def Con from 8.179e-005 to 8.17916e-005
Heightened Def Con from 8.77902e-005 to 8.77919e-005
Heightened Def Con from 9.37897e-005 to 9.37913e-005
Heightened Def Con from 9.57897e-005 to 9.57913e-005
Heightened Def Con from 9.77901e-005 to 9.77918e-005
Heightened Def Con from 0.00010579 to 0.000105792
Heightened Def Con from 0.00010979 to 0.000109792
Heightened Def Con from 0.00011579 to 0.000115791
Heightened Def Con from 0.000127791 to 0.000127792
Heightened Def Con from 0.000131791 to 0.000131793
Heightened Def Con from 0.00013379 to 0.000133792
Heightened Def Con from 0.00014179 to 0.000141792
Heightened Def Con from 0.00015379 to 0.000153791
Heightened Def Con from 0.00015579 to 0.000155791
Heightened Def Con from 0.00016179 to 0.000161792
Heightened Def Con from 0.00016779 to 0.000167792
Heightened Def Con from 0.00017579 to 0.000175792
Heightened Def Con from 0.00018379 to 0.000183792
Heightened Def Con from 0.00018779 to 0.000187791
Heightened Def Con from 0.000191791 to 0.000191792
Heightened Def Con from 0.00019579 to 0.000195792

Date: Sun Oct 11 15:50:13 2020
Total elapsed time: 0.919 seconds.

tnom = 27
temp = 27
method = modified trap
totiter = 138431
traniter = 137997
tranpoints = 40684
accept = 31008
rejected = 9707
matrix size = 32
fillins = 4
solver = Normal
Matrix Compiler1: 1.23 KB object code size  0.3/0.2/[0.1]
Matrix Compiler2: 2.18 KB object code size  0.3/0.4/[0.3]

