Circuit: * C:\users\erik\My Documents\Education\powerelectronics\AdvancedConverterControlTechniques\Chapter2Problems\problem2-9_2.asc

Per .tran options, skipping operating point for transient analysis.

ilavg: AVG(i(l1))=-0.00180631 FROM 0.00032 TO 0.0004

Measurement "ts" FAIL'ed
ilpp: PP(i(l1))=0.0617619 FROM 0.00032 TO 0.000322


Date: Thu Jul 15 07:43:38 2021
Total elapsed time: 0.356 seconds.

tnom = 27
temp = 27
method = modified trap
totiter = 15116
traniter = 15116
tranpoints = 7559
accept = 5052
rejected = 2507
matrix size = 4
fillins = 0
solver = Normal
Matrix Compiler1: 100 bytes object code size  0.1/0.1/[0.0]
Matrix Compiler2: 248 bytes object code size  0.1/0.1/[0.1]

