Circuit: * C:\users\erik\My Documents\Education\powerelectronics\AdvancedConverterControlTechniques\Chapter2Problems\problem2-4.asc

Per .tran options, skipping operating point for transient analysis.
Ignoring empty pin current: Ix(u1:1)
Ignoring empty pin current: Ix(u1:2)
Ignoring empty pin current: Ix(u1:3)
Ignoring empty pin current: Ix(u1:5)

m: vc1/v(vin)=0.193339
vc1: AVG(v(vcout, vln))=1.93339 FROM 9e-005 TO 0.00019
d: AVG(v(duty)/5)=0.59666 FROM 9e-005 TO 0.00019
ilrip: PP(i(l1)/2)=0.315303 FROM 9e-005 TO 0.00011
vcrip: PP(v(vcout, vln)/2)=0.764119 FROM 9e-005 TO 0.00011
ilavg: AVG(i(l1))=0.19331 FROM 9e-005 TO 0.00019


Date: Sun Jun 13 08:50:38 2021
Total elapsed time: 0.228 seconds.

tnom = 27
temp = 27
method = modified trap
totiter = 19749
traniter = 19749
tranpoints = 6750
accept = 5245
rejected = 1505
matrix size = 31
fillins = 0
solver = Normal
Matrix Compiler1: 1.02 KB object code size  0.3/0.2/[0.1]
Matrix Compiler2: 2.05 KB object code size  0.2/0.3/[0.2]

