Circuit: * C:\users\erik\My Documents\Education\powerelectronics\AdvancedConverterControlTechniques\Chapter2Problems\problem2-2.asc

Per .tran options, skipping operating point for transient analysis.
Ignoring empty pin current: Ix(u1:1)
Ignoring empty pin current: Ix(u1:2)
Ignoring empty pin current: Ix(u1:3)
Ignoring empty pin current: Ix(u1:5)

Date: Sat Oct 10 11:52:49 2020
Total elapsed time: 0.576 seconds.

tnom = 27
temp = 27
method = modified trap
totiter = 81275
traniter = 81275
tranpoints = 25800
accept = 19829
rejected = 5971
matrix size = 31
fillins = 0
solver = Normal
Matrix Compiler1: 1.00 KB object code size  0.3/0.2/[0.1]
Matrix Compiler2: 2.02 KB object code size  0.2/0.3/[0.1]

