Circuit: * C:\users\erik\My Documents\Education\powerelectronics\AdvancedConverterControlTechniques\Chapter2Problems\problem2-5.asc

WARNING: Node NC_05 is floating.
WARNING: Node N003 is floating.

WARNING: Less than two connections to node NC_01.  This node is used by D1.
WARNING: Less than two connections to node NC_02.  This node is used by D2.
WARNING: Less than two connections to node NC_03.  This node is used by D3.
WARNING: Less than two connections to node NC_04.  This node is used by D4.
WARNING: Less than two connections to node NC_05.  This node is used by C2.
WARNING: Less than two connections to node N002.  This node is used by D6.
WARNING: Less than two connections to node N003.  This node is used by C3.
Per .tran options, skipping operating point for transient analysis.
Ignoring empty pin current: Ix(u1:1)
Ignoring empty pin current: Ix(u1:2)
Ignoring empty pin current: Ix(u1:3)
Ignoring empty pin current: Ix(u1:5)
Heightened Def Con from 6.52528e-006 to 6.52691e-006
Heightened Def Con from 2.3593e-005 to 2.35946e-005
Heightened Def Con from 2.5593e-005 to 2.55946e-005
Heightened Def Con from 2.9593e-005 to 2.95946e-005
Heightened Def Con from 3.5593e-005 to 3.55946e-005
Heightened Def Con from 3.9593e-005 to 3.95946e-005
Heightened Def Con from 4.1593e-005 to 4.15946e-005
Heightened Def Con from 4.3593e-005 to 4.35946e-005
Heightened Def Con from 4.5593e-005 to 4.55946e-005
Heightened Def Con from 4.7593e-005 to 4.75946e-005
Heightened Def Con from 5.5593e-005 to 5.55946e-005
Heightened Def Con from 5.7593e-005 to 5.75946e-005
Heightened Def Con from 5.9593e-005 to 5.95946e-005
Heightened Def Con from 6.1593e-005 to 6.15946e-005
Heightened Def Con from 6.3593e-005 to 6.35946e-005
Heightened Def Con from 6.5593e-005 to 6.55946e-005
Heightened Def Con from 6.7593e-005 to 6.75946e-005
Heightened Def Con from 7.5593e-005 to 7.55946e-005
Heightened Def Con from 8.3593e-005 to 8.35946e-005
Heightened Def Con from 9.3593e-005 to 9.35946e-005
Heightened Def Con from 9.5593e-005 to 9.55946e-005
Heightened Def Con from 9.9593e-005 to 9.95946e-005
Heightened Def Con from 0.000113593 to 0.000113595
Heightened Def Con from 0.000117593 to 0.000117595
Heightened Def Con from 0.000123593 to 0.000123595
Heightened Def Con from 0.000125593 to 0.000125595
Heightened Def Con from 0.000127593 to 0.000127595
Heightened Def Con from 0.000129593 to 0.000129595
Heightened Def Con from 0.000131593 to 0.000131595
Heightened Def Con from 0.000133593 to 0.000133595
Heightened Def Con from 0.000135593 to 0.000135595
Heightened Def Con from 0.000137593 to 0.000137595
Heightened Def Con from 0.000139593 to 0.000139595
Heightened Def Con from 0.000141593 to 0.000141595
Heightened Def Con from 0.000143593 to 0.000143595
Heightened Def Con from 0.000145593 to 0.000145595
Heightened Def Con from 0.000147593 to 0.000147595
Heightened Def Con from 0.000149593 to 0.000149595
Heightened Def Con from 0.000151593 to 0.000151595
Heightened Def Con from 0.000157593 to 0.000157595
Heightened Def Con from 0.000175593 to 0.000175595
Heightened Def Con from 0.000185593 to 0.000185595
Heightened Def Con from 0.000193593 to 0.000193595
Heightened Def Con from 0.000199593 to 0.000199595
Heightened Def Con from 0.000201593 to 0.000201595
Heightened Def Con from 0.000203593 to 0.000203595
Heightened Def Con from 0.000205593 to 0.000205595
Heightened Def Con from 0.000207593 to 0.000207595
Heightened Def Con from 0.000209593 to 0.000209595
Heightened Def Con from 0.000215593 to 0.000215595
Heightened Def Con from 0.000233593 to 0.000233595
Heightened Def Con from 0.000239593 to 0.000239595
Heightened Def Con from 0.000241593 to 0.000241595
Heightened Def Con from 0.000243593 to 0.000243595
Heightened Def Con from 0.000245593 to 0.000245595
Heightened Def Con from 0.000255593 to 0.000255595
Heightened Def Con from 0.000257593 to 0.000257595
Heightened Def Con from 0.000259593 to 0.000259595
Heightened Def Con from 0.000261593 to 0.000261595
Heightened Def Con from 0.000263593 to 0.000263595
Heightened Def Con from 0.000269593 to 0.000269595
Heightened Def Con from 0.000271593 to 0.000271595
Heightened Def Con from 0.000273593 to 0.000273595
Heightened Def Con from 0.000275593 to 0.000275595
Heightened Def Con from 0.000323593 to 0.000323595
Heightened Def Con from 0.000325593 to 0.000325595
Heightened Def Con from 0.000327593 to 0.000327595
Heightened Def Con from 0.000335593 to 0.000335595
Heightened Def Con from 0.000337593 to 0.000337595
Heightened Def Con from 0.000339593 to 0.000339595
Heightened Def Con from 0.000341593 to 0.000341595
Heightened Def Con from 0.000343593 to 0.000343595
Heightened Def Con from 0.000345593 to 0.000345595
Heightened Def Con from 0.000349593 to 0.000349595
Heightened Def Con from 0.000351593 to 0.000351595
Heightened Def Con from 0.000353593 to 0.000353595
Heightened Def Con from 0.000355593 to 0.000355595
Heightened Def Con from 0.000357593 to 0.000357595
Heightened Def Con from 0.000369593 to 0.000369595

ilavg: AVG(i(l1))=2.66266 FROM 0.00032 TO 0.0004
dts=1.59406e-006 FROM 8.00003e-005 TO 8.15944e-005
d: dts/ts=0.797028
vc: AVG(v(vlp)-v(vln))=9.94825 FROM 0.00032 TO 0.0004
ts=2e-006 FROM 0.00032 TO 0.000322
ilpp: PP(i(l1))=0.406596 FROM 0.00032 TO 0.000322
vg: AVG(v(vin))=10 FROM 0.00032 TO 0.0004
m: vc/vg=0.994825
rc: 3162.27766016838=3162.28


Date: Tue Jun 22 08:13:27 2021
Total elapsed time: 2.059 seconds.

tnom = 27
temp = 27
method = modified trap
totiter = 260958
traniter = 260958
tranpoints = 75146
accept = 57345
rejected = 17880
matrix size = 39
fillins = 0
solver = Normal
Thread vector: 6.2/4.3[2] 1.3/1.3[1] 1.4/0.9[2] 0.2/0.6[1]  2592/500
Matrix Compiler1: 1.38 KB object code size  0.3/0.2/[0.1]
Matrix Compiler2: 2.50 KB object code size  0.2/0.3/[0.2]

